gem5 Simulator System.  https://www.gem5.org
gem5 is copyrighted software; use the --copyright option for details.

gem5 version 23.1.0.0
gem5 compiled Jan  6 2024 23:00:07
gem5 started Jan 15 2024 01:35:04
gem5 executing on codespaces-69d0cb, pid 3748
command line: gem5 -re --outdir=step2_3 run.py HW1TimingSimpleCPU HW1DDR3_2133_8x8 4GHz

Global frequency set at 1000000000000 ticks per second
Initializing the matrices...Done.
Beginning multiply...
Done.
Time 89.1477 ms
Finished simulation.
