gem5 Simulator System.  https://www.gem5.org
gem5 is copyrighted software; use the --copyright option for details.

gem5 version 23.1.0.0
gem5 compiled Jan  6 2024 23:00:07
gem5 started Jan 15 2024 01:53:12
gem5 executing on codespaces-69d0cb, pid 10459
command line: gem5 -re --outdir=step2_6 run.py HW1MinorCPU HW1LPDDR3_1600_1x32 4GHz

Global frequency set at 1000000000000 ticks per second
Initializing the matrices...Done.
Beginning multiply...
Done.
Time 33.8462 ms
Finished simulation.
