
---------- Begin Simulation Statistics ----------
simSeconds                                   0.100238                       # Number of seconds simulated (Second)
simTicks                                 100237779750                       # Number of ticks simulated (Tick)
finalTick                                100237779750                       # Number of ticks from beginning of simulation (restored from checkpoints and never reset) (Tick)
simFreq                                  1000000000000                       # The number of ticks per simulated second ((Tick/Second))
hostSeconds                                    257.05                       # Real time elapsed on the host (Second)
hostTickRate                                389953033                       # The number of ticks simulated per host second (ticks/s) ((Tick/Second))
hostMemory                                    1387500                       # Number of bytes of host memory used (Byte)
simInsts                                    103232027                       # Number of instructions simulated (Count)
simOps                                      103232079                       # Number of ops (including micro ops) simulated (Count)
hostInstRate                                   401601                       # Simulator instruction rate (inst/s) ((Count/Second))
hostOpRate                                     401601                       # Simulator op (including micro ops) rate (op/s) ((Count/Second))
board.cache_hierarchy.ruby_system.delayHistogram::bucket_size            1                       # delay histogram for all message (Unspecified)
board.cache_hierarchy.ruby_system.delayHistogram::max_bucket            9                       # delay histogram for all message (Unspecified)
board.cache_hierarchy.ruby_system.delayHistogram::samples      7174236                       # delay histogram for all message (Unspecified)
board.cache_hierarchy.ruby_system.delayHistogram::mean     0.028409                       # delay histogram for all message (Unspecified)
board.cache_hierarchy.ruby_system.delayHistogram::stdev     0.475887                       # delay histogram for all message (Unspecified)
board.cache_hierarchy.ruby_system.delayHistogram |     7148759     99.64%     99.64% |           0      0.00%     99.64% |           0      0.00%     99.64% |           0      0.00%     99.64% |           0      0.00%     99.64% |           0      0.00%     99.64% |           0      0.00%     99.64% |           0      0.00%     99.64% |       25477      0.36%    100.00% |           0      0.00%    100.00% # delay histogram for all message (Unspecified)
board.cache_hierarchy.ruby_system.delayHistogram::total      7174236                       # delay histogram for all message (Unspecified)
board.cache_hierarchy.ruby_system.m_outstandReqHistSeqr::bucket_size            1                       (Unspecified)
board.cache_hierarchy.ruby_system.m_outstandReqHistSeqr::max_bucket            9                       (Unspecified)
board.cache_hierarchy.ruby_system.m_outstandReqHistSeqr::samples    188897948                       (Unspecified)
board.cache_hierarchy.ruby_system.m_outstandReqHistSeqr::mean            1                       (Unspecified)
board.cache_hierarchy.ruby_system.m_outstandReqHistSeqr::gmean            1                       (Unspecified)
board.cache_hierarchy.ruby_system.m_outstandReqHistSeqr |           0      0.00%      0.00% |   188897948    100.00%    100.00% |           0      0.00%    100.00% |           0      0.00%    100.00% |           0      0.00%    100.00% |           0      0.00%    100.00% |           0      0.00%    100.00% |           0      0.00%    100.00% |           0      0.00%    100.00% |           0      0.00%    100.00% (Unspecified)
board.cache_hierarchy.ruby_system.m_outstandReqHistSeqr::total    188897948                       (Unspecified)
board.cache_hierarchy.ruby_system.m_latencyHistSeqr::bucket_size          256                       (Unspecified)
board.cache_hierarchy.ruby_system.m_latencyHistSeqr::max_bucket         2559                       (Unspecified)
board.cache_hierarchy.ruby_system.m_latencyHistSeqr::samples    188897948                       (Unspecified)
board.cache_hierarchy.ruby_system.m_latencyHistSeqr::mean     1.122581                       (Unspecified)
board.cache_hierarchy.ruby_system.m_latencyHistSeqr::gmean     1.020009                       (Unspecified)
board.cache_hierarchy.ruby_system.m_latencyHistSeqr::stdev     3.352342                       (Unspecified)
board.cache_hierarchy.ruby_system.m_latencyHistSeqr |   188896416    100.00%    100.00% |         536      0.00%    100.00% |         318      0.00%    100.00% |         438      0.00%    100.00% |         179      0.00%    100.00% |          52      0.00%    100.00% |           0      0.00%    100.00% |           4      0.00%    100.00% |           5      0.00%    100.00% |           0      0.00%    100.00% (Unspecified)
board.cache_hierarchy.ruby_system.m_latencyHistSeqr::total    188897948                       (Unspecified)
board.cache_hierarchy.ruby_system.m_hitLatencyHistSeqr::bucket_size            1                       (Unspecified)
board.cache_hierarchy.ruby_system.m_hitLatencyHistSeqr::max_bucket            9                       (Unspecified)
board.cache_hierarchy.ruby_system.m_hitLatencyHistSeqr::samples    187470603                       (Unspecified)
board.cache_hierarchy.ruby_system.m_hitLatencyHistSeqr::mean            1                       (Unspecified)
board.cache_hierarchy.ruby_system.m_hitLatencyHistSeqr::gmean            1                       (Unspecified)
board.cache_hierarchy.ruby_system.m_hitLatencyHistSeqr |           0      0.00%      0.00% |   187470603    100.00%    100.00% |           0      0.00%    100.00% |           0      0.00%    100.00% |           0      0.00%    100.00% |           0      0.00%    100.00% |           0      0.00%    100.00% |           0      0.00%    100.00% |           0      0.00%    100.00% |           0      0.00%    100.00% (Unspecified)
board.cache_hierarchy.ruby_system.m_hitLatencyHistSeqr::total    187470603                       (Unspecified)
board.cache_hierarchy.ruby_system.m_missLatencyHistSeqr::bucket_size          256                       (Unspecified)
board.cache_hierarchy.ruby_system.m_missLatencyHistSeqr::max_bucket         2559                       (Unspecified)
board.cache_hierarchy.ruby_system.m_missLatencyHistSeqr::samples      1427345                       (Unspecified)
board.cache_hierarchy.ruby_system.m_missLatencyHistSeqr::mean    17.222583                       (Unspecified)
board.cache_hierarchy.ruby_system.m_missLatencyHistSeqr::gmean    13.762199                       (Unspecified)
board.cache_hierarchy.ruby_system.m_missLatencyHistSeqr::stdev    35.015781                       (Unspecified)
board.cache_hierarchy.ruby_system.m_missLatencyHistSeqr |     1425813     99.89%     99.89% |         536      0.04%     99.93% |         318      0.02%     99.95% |         438      0.03%     99.98% |         179      0.01%    100.00% |          52      0.00%    100.00% |           0      0.00%    100.00% |           4      0.00%    100.00% |           5      0.00%    100.00% |           0      0.00%    100.00% (Unspecified)
board.cache_hierarchy.ruby_system.m_missLatencyHistSeqr::total      1427345                       (Unspecified)
board.cache_hierarchy.ruby_system.delayVCHist.vnet_0::bucket_size            1                       # delay histogram for vnet_0 (Unspecified)
board.cache_hierarchy.ruby_system.delayVCHist.vnet_0::max_bucket            9                       # delay histogram for vnet_0 (Unspecified)
board.cache_hierarchy.ruby_system.delayVCHist.vnet_0::samples      4278878                       # delay histogram for vnet_0 (Unspecified)
board.cache_hierarchy.ruby_system.delayVCHist.vnet_0::mean     0.047633                       # delay histogram for vnet_0 (Unspecified)
board.cache_hierarchy.ruby_system.delayVCHist.vnet_0::stdev     0.615464                       # delay histogram for vnet_0 (Unspecified)
board.cache_hierarchy.ruby_system.delayVCHist.vnet_0 |     4253401     99.40%     99.40% |           0      0.00%     99.40% |           0      0.00%     99.40% |           0      0.00%     99.40% |           0      0.00%     99.40% |           0      0.00%     99.40% |           0      0.00%     99.40% |           0      0.00%     99.40% |       25477      0.60%    100.00% |           0      0.00%    100.00% # delay histogram for vnet_0 (Unspecified)
board.cache_hierarchy.ruby_system.delayVCHist.vnet_0::total      4278878                       # delay histogram for vnet_0 (Unspecified)
board.cache_hierarchy.ruby_system.delayVCHist.vnet_1::bucket_size            1                       # delay histogram for vnet_1 (Unspecified)
board.cache_hierarchy.ruby_system.delayVCHist.vnet_1::max_bucket            9                       # delay histogram for vnet_1 (Unspecified)
board.cache_hierarchy.ruby_system.delayVCHist.vnet_1::samples      2894530                       # delay histogram for vnet_1 (Unspecified)
board.cache_hierarchy.ruby_system.delayVCHist.vnet_1 |     2894530    100.00%    100.00% |           0      0.00%    100.00% |           0      0.00%    100.00% |           0      0.00%    100.00% |           0      0.00%    100.00% |           0      0.00%    100.00% |           0      0.00%    100.00% |           0      0.00%    100.00% |           0      0.00%    100.00% |           0      0.00%    100.00% # delay histogram for vnet_1 (Unspecified)
board.cache_hierarchy.ruby_system.delayVCHist.vnet_1::total      2894530                       # delay histogram for vnet_1 (Unspecified)
board.cache_hierarchy.ruby_system.delayVCHist.vnet_2::bucket_size            1                       # delay histogram for vnet_2 (Unspecified)
board.cache_hierarchy.ruby_system.delayVCHist.vnet_2::max_bucket            9                       # delay histogram for vnet_2 (Unspecified)
board.cache_hierarchy.ruby_system.delayVCHist.vnet_2::samples          828                       # delay histogram for vnet_2 (Unspecified)
board.cache_hierarchy.ruby_system.delayVCHist.vnet_2 |         828    100.00%    100.00% |           0      0.00%    100.00% |           0      0.00%    100.00% |           0      0.00%    100.00% |           0      0.00%    100.00% |           0      0.00%    100.00% |           0      0.00%    100.00% |           0      0.00%    100.00% |           0      0.00%    100.00% |           0      0.00%    100.00% # delay histogram for vnet_2 (Unspecified)
board.cache_hierarchy.ruby_system.delayVCHist.vnet_2::total          828                       # delay histogram for vnet_2 (Unspecified)
board.cache_hierarchy.ruby_system.Directory_Controller.Fetch        28779      0.00%      0.00% (Unspecified)
board.cache_hierarchy.ruby_system.Directory_Controller.Data        10345      0.00%      0.00% (Unspecified)
board.cache_hierarchy.ruby_system.Directory_Controller.Memory_Data        28779      0.00%      0.00% (Unspecified)
board.cache_hierarchy.ruby_system.Directory_Controller.Memory_Ack        10345      0.00%      0.00% (Unspecified)
board.cache_hierarchy.ruby_system.Directory_Controller.CleanReplacement         2050      0.00%      0.00% (Unspecified)
board.cache_hierarchy.ruby_system.Directory_Controller.I.Fetch        28779      0.00%      0.00% (Unspecified)
board.cache_hierarchy.ruby_system.Directory_Controller.M.Data        10345      0.00%      0.00% (Unspecified)
board.cache_hierarchy.ruby_system.Directory_Controller.M.CleanReplacement         2050      0.00%      0.00% (Unspecified)
board.cache_hierarchy.ruby_system.Directory_Controller.IM.Memory_Data        28779      0.00%      0.00% (Unspecified)
board.cache_hierarchy.ruby_system.Directory_Controller.MI.Memory_Ack        10345      0.00%      0.00% (Unspecified)
board.cache_hierarchy.ruby_system.L1Cache_Controller.Load     36197333      0.00%      0.00% (Unspecified)
board.cache_hierarchy.ruby_system.L1Cache_Controller.Ifetch    139591943      0.00%      0.00% (Unspecified)
board.cache_hierarchy.ruby_system.L1Cache_Controller.Store     13108672      0.00%      0.00% (Unspecified)
board.cache_hierarchy.ruby_system.L1Cache_Controller.Inv          828      0.00%      0.00% (Unspecified)
board.cache_hierarchy.ruby_system.L1Cache_Controller.L1_Replacement      1425269      0.00%      0.00% (Unspecified)
board.cache_hierarchy.ruby_system.L1Cache_Controller.Data_Exclusive      1407059      0.00%      0.00% (Unspecified)
board.cache_hierarchy.ruby_system.L1Cache_Controller.Data_all_Acks        20286      0.00%      0.00% (Unspecified)
board.cache_hierarchy.ruby_system.L1Cache_Controller.WB_Ack      1425183      0.00%      0.00% (Unspecified)
board.cache_hierarchy.ruby_system.L1Cache_Controller.NP.Load      1406956      0.00%      0.00% (Unspecified)
board.cache_hierarchy.ruby_system.L1Cache_Controller.NP.Ifetch          858      0.00%      0.00% (Unspecified)
board.cache_hierarchy.ruby_system.L1Cache_Controller.NP.Store        19287      0.00%      0.00% (Unspecified)
board.cache_hierarchy.ruby_system.L1Cache_Controller.NP.Inv           12      0.00%      0.00% (Unspecified)
board.cache_hierarchy.ruby_system.L1Cache_Controller.I.Load          103      0.00%      0.00% (Unspecified)
board.cache_hierarchy.ruby_system.L1Cache_Controller.I.Ifetch          137      0.00%      0.00% (Unspecified)
board.cache_hierarchy.ruby_system.L1Cache_Controller.I.Store            4      0.00%      0.00% (Unspecified)
board.cache_hierarchy.ruby_system.L1Cache_Controller.I.L1_Replacement           74      0.00%      0.00% (Unspecified)
board.cache_hierarchy.ruby_system.L1Cache_Controller.S.Ifetch    139590948      0.00%      0.00% (Unspecified)
board.cache_hierarchy.ruby_system.L1Cache_Controller.S.Inv          673      0.00%      0.00% (Unspecified)
board.cache_hierarchy.ruby_system.L1Cache_Controller.S.L1_Replacement           12      0.00%      0.00% (Unspecified)
board.cache_hierarchy.ruby_system.L1Cache_Controller.E.Load     21336203      0.00%      0.00% (Unspecified)
board.cache_hierarchy.ruby_system.L1Cache_Controller.E.Store         6417      0.00%      0.00% (Unspecified)
board.cache_hierarchy.ruby_system.L1Cache_Controller.E.Inv           18      0.00%      0.00% (Unspecified)
board.cache_hierarchy.ruby_system.L1Cache_Controller.E.L1_Replacement      1399706      0.00%      0.00% (Unspecified)
board.cache_hierarchy.ruby_system.L1Cache_Controller.M.Load     13454071      0.00%      0.00% (Unspecified)
board.cache_hierarchy.ruby_system.L1Cache_Controller.M.Store     13082964      0.00%      0.00% (Unspecified)
board.cache_hierarchy.ruby_system.L1Cache_Controller.M.Inv          125      0.00%      0.00% (Unspecified)
board.cache_hierarchy.ruby_system.L1Cache_Controller.M.L1_Replacement        25477      0.00%      0.00% (Unspecified)
board.cache_hierarchy.ruby_system.L1Cache_Controller.IS.Data_Exclusive      1407059      0.00%      0.00% (Unspecified)
board.cache_hierarchy.ruby_system.L1Cache_Controller.IS.Data_all_Acks          995      0.00%      0.00% (Unspecified)
board.cache_hierarchy.ruby_system.L1Cache_Controller.IM.Data_all_Acks        19291      0.00%      0.00% (Unspecified)
board.cache_hierarchy.ruby_system.L1Cache_Controller.M_I.WB_Ack      1425183      0.00%      0.00% (Unspecified)
board.cache_hierarchy.ruby_system.L2Cache_Controller.L1_GET_INSTR |         261     26.23%     26.23% |         259     26.03%     52.26% |         230     23.12%     75.38% |         245     24.62%    100.00% (Unspecified)
board.cache_hierarchy.ruby_system.L2Cache_Controller.L1_GET_INSTR::total          995                       (Unspecified)
board.cache_hierarchy.ruby_system.L2Cache_Controller.L1_GETS |      351441     24.98%     24.98% |      351811     25.00%     49.98% |      351739     25.00%     74.98% |      352068     25.02%    100.00% (Unspecified)
board.cache_hierarchy.ruby_system.L2Cache_Controller.L1_GETS::total      1407059                       (Unspecified)
board.cache_hierarchy.ruby_system.L2Cache_Controller.L1_GETX |        4828     25.03%     25.03% |        4818     24.98%     50.00% |        4824     25.01%     75.01% |        4821     24.99%    100.00% (Unspecified)
board.cache_hierarchy.ruby_system.L2Cache_Controller.L1_GETX::total        19291                       (Unspecified)
board.cache_hierarchy.ruby_system.L2Cache_Controller.L1_PUTX |      355976     24.98%     24.98% |      356340     25.00%     49.98% |      356271     25.00%     74.98% |      356596     25.02%    100.00% (Unspecified)
board.cache_hierarchy.ruby_system.L2Cache_Controller.L1_PUTX::total      1425183                       (Unspecified)
board.cache_hierarchy.ruby_system.L2Cache_Controller.L2_Replacement |        2572     25.17%     25.17% |        2542     24.87%     50.04% |        2538     24.83%     74.87% |        2568     25.13%    100.00% (Unspecified)
board.cache_hierarchy.ruby_system.L2Cache_Controller.L2_Replacement::total        10220                       (Unspecified)
board.cache_hierarchy.ruby_system.L2Cache_Controller.L2_Replacement_clean |         562     25.84%     25.84% |         549     25.24%     51.08% |         522     24.00%     75.08% |         542     24.92%    100.00% (Unspecified)
board.cache_hierarchy.ruby_system.L2Cache_Controller.L2_Replacement_clean::total         2175                       (Unspecified)
board.cache_hierarchy.ruby_system.L2Cache_Controller.Mem_Data |        7230     25.12%     25.12% |        7187     24.97%     50.10% |        7156     24.87%     74.96% |        7206     25.04%    100.00% (Unspecified)
board.cache_hierarchy.ruby_system.L2Cache_Controller.Mem_Data::total        28779                       (Unspecified)
board.cache_hierarchy.ruby_system.L2Cache_Controller.Mem_Ack |        3134     25.28%     25.28% |        3091     24.94%     50.22% |        3060     24.69%     74.91% |        3110     25.09%    100.00% (Unspecified)
board.cache_hierarchy.ruby_system.L2Cache_Controller.Mem_Ack::total        12395                       (Unspecified)
board.cache_hierarchy.ruby_system.L2Cache_Controller.WB_Data |          33     26.40%     26.40% |          29     23.20%     49.60% |          33     26.40%     76.00% |          30     24.00%    100.00% (Unspecified)
board.cache_hierarchy.ruby_system.L2Cache_Controller.WB_Data::total          125                       (Unspecified)
board.cache_hierarchy.ruby_system.L2Cache_Controller.Ack_all |         184     26.17%     26.17% |         180     25.60%     51.78% |         165     23.47%     75.25% |         174     24.75%    100.00% (Unspecified)
board.cache_hierarchy.ruby_system.L2Cache_Controller.Ack_all::total          703                       (Unspecified)
board.cache_hierarchy.ruby_system.L2Cache_Controller.Exclusive_Unblock |      356269     24.98%     24.98% |      356629     25.00%     49.98% |      356563     25.00%     74.98% |      356889     25.02%    100.00% (Unspecified)
board.cache_hierarchy.ruby_system.L2Cache_Controller.Exclusive_Unblock::total      1426350                       (Unspecified)
board.cache_hierarchy.ruby_system.L2Cache_Controller.NP.L1_GET_INSTR |         261     26.23%     26.23% |         259     26.03%     52.26% |         230     23.12%     75.38% |         245     24.62%    100.00% (Unspecified)
board.cache_hierarchy.ruby_system.L2Cache_Controller.NP.L1_GET_INSTR::total          995                       (Unspecified)
board.cache_hierarchy.ruby_system.L2Cache_Controller.NP.L1_GETS |        2143     25.21%     25.21% |        2113     24.86%     50.06% |        2104     24.75%     74.81% |        2141     25.19%    100.00% (Unspecified)
board.cache_hierarchy.ruby_system.L2Cache_Controller.NP.L1_GETS::total         8501                       (Unspecified)
board.cache_hierarchy.ruby_system.L2Cache_Controller.NP.L1_GETX |        4826     25.03%     25.03% |        4815     24.97%     50.00% |        4822     25.01%     75.00% |        4820     25.00%    100.00% (Unspecified)
board.cache_hierarchy.ruby_system.L2Cache_Controller.NP.L1_GETX::total        19283                       (Unspecified)
board.cache_hierarchy.ruby_system.L2Cache_Controller.SS.L2_Replacement_clean |         180     26.28%     26.28% |         176     25.69%     51.97% |         162     23.65%     75.62% |         167     24.38%    100.00% (Unspecified)
board.cache_hierarchy.ruby_system.L2Cache_Controller.SS.L2_Replacement_clean::total          685                       (Unspecified)
board.cache_hierarchy.ruby_system.L2Cache_Controller.M.L1_GETS |      349298     24.98%     24.98% |      349698     25.00%     49.98% |      349635     25.00%     74.98% |      349927     25.02%    100.00% (Unspecified)
board.cache_hierarchy.ruby_system.L2Cache_Controller.M.L1_GETS::total      1398558                       (Unspecified)
board.cache_hierarchy.ruby_system.L2Cache_Controller.M.L1_GETX |           2     25.00%     25.00% |           3     37.50%     62.50% |           2     25.00%     87.50% |           1     12.50%    100.00% (Unspecified)
board.cache_hierarchy.ruby_system.L2Cache_Controller.M.L1_GETX::total            8                       (Unspecified)
board.cache_hierarchy.ruby_system.L2Cache_Controller.M.L2_Replacement |        2572     25.17%     25.17% |        2542     24.87%     50.04% |        2538     24.83%     74.87% |        2568     25.13%    100.00% (Unspecified)
board.cache_hierarchy.ruby_system.L2Cache_Controller.M.L2_Replacement::total        10220                       (Unspecified)
board.cache_hierarchy.ruby_system.L2Cache_Controller.M.L2_Replacement_clean |         345     25.61%     25.61% |         340     25.24%     50.85% |         324     24.05%     74.91% |         338     25.09%    100.00% (Unspecified)
board.cache_hierarchy.ruby_system.L2Cache_Controller.M.L2_Replacement_clean::total         1347                       (Unspecified)
board.cache_hierarchy.ruby_system.L2Cache_Controller.MT.L1_PUTX |      355976     24.98%     24.98% |      356340     25.00%     49.98% |      356271     25.00%     74.98% |      356596     25.02%    100.00% (Unspecified)
board.cache_hierarchy.ruby_system.L2Cache_Controller.MT.L1_PUTX::total      1425183                       (Unspecified)
board.cache_hierarchy.ruby_system.L2Cache_Controller.MT.L2_Replacement_clean |          37     25.87%     25.87% |          33     23.08%     48.95% |          36     25.17%     74.13% |          37     25.87%    100.00% (Unspecified)
board.cache_hierarchy.ruby_system.L2Cache_Controller.MT.L2_Replacement_clean::total          143                       (Unspecified)
board.cache_hierarchy.ruby_system.L2Cache_Controller.M_I.Mem_Ack |        3134     25.28%     25.28% |        3091     24.94%     50.22% |        3060     24.69%     74.91% |        3110     25.09%    100.00% (Unspecified)
board.cache_hierarchy.ruby_system.L2Cache_Controller.M_I.Mem_Ack::total        12395                       (Unspecified)
board.cache_hierarchy.ruby_system.L2Cache_Controller.MCT_I.WB_Data |          33     26.40%     26.40% |          29     23.20%     49.60% |          33     26.40%     76.00% |          30     24.00%    100.00% (Unspecified)
board.cache_hierarchy.ruby_system.L2Cache_Controller.MCT_I.WB_Data::total          125                       (Unspecified)
board.cache_hierarchy.ruby_system.L2Cache_Controller.MCT_I.Ack_all |           4     22.22%     22.22% |           4     22.22%     44.44% |           3     16.67%     61.11% |           7     38.89%    100.00% (Unspecified)
board.cache_hierarchy.ruby_system.L2Cache_Controller.MCT_I.Ack_all::total           18                       (Unspecified)
board.cache_hierarchy.ruby_system.L2Cache_Controller.I_I.Ack_all |         180     26.28%     26.28% |         176     25.69%     51.97% |         162     23.65%     75.62% |         167     24.38%    100.00% (Unspecified)
board.cache_hierarchy.ruby_system.L2Cache_Controller.I_I.Ack_all::total          685                       (Unspecified)
board.cache_hierarchy.ruby_system.L2Cache_Controller.ISS.Mem_Data |        2143     25.21%     25.21% |        2113     24.86%     50.06% |        2104     24.75%     74.81% |        2141     25.19%    100.00% (Unspecified)
board.cache_hierarchy.ruby_system.L2Cache_Controller.ISS.Mem_Data::total         8501                       (Unspecified)
board.cache_hierarchy.ruby_system.L2Cache_Controller.IS.Mem_Data |         261     26.23%     26.23% |         259     26.03%     52.26% |         230     23.12%     75.38% |         245     24.62%    100.00% (Unspecified)
board.cache_hierarchy.ruby_system.L2Cache_Controller.IS.Mem_Data::total          995                       (Unspecified)
board.cache_hierarchy.ruby_system.L2Cache_Controller.IM.Mem_Data |        4826     25.03%     25.03% |        4815     24.97%     50.00% |        4822     25.01%     75.00% |        4820     25.00%    100.00% (Unspecified)
board.cache_hierarchy.ruby_system.L2Cache_Controller.IM.Mem_Data::total        19283                       (Unspecified)
board.cache_hierarchy.ruby_system.L2Cache_Controller.MT_MB.Exclusive_Unblock |      356269     24.98%     24.98% |      356629     25.00%     49.98% |      356563     25.00%     74.98% |      356889     25.02%    100.00% (Unspecified)
board.cache_hierarchy.ruby_system.L2Cache_Controller.MT_MB.Exclusive_Unblock::total      1426350                       (Unspecified)
board.cache_hierarchy.ruby_system.RequestType.LD.latency_hist_seqr::bucket_size          256                       (Unspecified)
board.cache_hierarchy.ruby_system.RequestType.LD.latency_hist_seqr::max_bucket         2559                       (Unspecified)
board.cache_hierarchy.ruby_system.RequestType.LD.latency_hist_seqr::samples     36197299                       (Unspecified)
board.cache_hierarchy.ruby_system.RequestType.LD.latency_hist_seqr::mean     1.522458                       (Unspecified)
board.cache_hierarchy.ruby_system.RequestType.LD.latency_hist_seqr::gmean     1.105636                       (Unspecified)
board.cache_hierarchy.ruby_system.RequestType.LD.latency_hist_seqr::stdev     5.152436                       (Unspecified)
board.cache_hierarchy.ruby_system.RequestType.LD.latency_hist_seqr |    36196582    100.00%    100.00% |         147      0.00%    100.00% |         200      0.00%    100.00% |         273      0.00%    100.00% |          82      0.00%    100.00% |           9      0.00%    100.00% |           0      0.00%    100.00% |           3      0.00%    100.00% |           3      0.00%    100.00% |           0      0.00%    100.00% (Unspecified)
board.cache_hierarchy.ruby_system.RequestType.LD.latency_hist_seqr::total     36197299                       (Unspecified)
board.cache_hierarchy.ruby_system.RequestType.LD.hit_latency_hist_seqr::bucket_size            1                       (Unspecified)
board.cache_hierarchy.ruby_system.RequestType.LD.hit_latency_hist_seqr::max_bucket            9                       (Unspecified)
board.cache_hierarchy.ruby_system.RequestType.LD.hit_latency_hist_seqr::samples     34790242                       (Unspecified)
board.cache_hierarchy.ruby_system.RequestType.LD.hit_latency_hist_seqr::mean            1                       (Unspecified)
board.cache_hierarchy.ruby_system.RequestType.LD.hit_latency_hist_seqr::gmean            1                       (Unspecified)
board.cache_hierarchy.ruby_system.RequestType.LD.hit_latency_hist_seqr |           0      0.00%      0.00% |    34790242    100.00%    100.00% |           0      0.00%    100.00% |           0      0.00%    100.00% |           0      0.00%    100.00% |           0      0.00%    100.00% |           0      0.00%    100.00% |           0      0.00%    100.00% |           0      0.00%    100.00% |           0      0.00%    100.00% (Unspecified)
board.cache_hierarchy.ruby_system.RequestType.LD.hit_latency_hist_seqr::total     34790242                       (Unspecified)
board.cache_hierarchy.ruby_system.RequestType.LD.miss_latency_hist_seqr::bucket_size          256                       (Unspecified)
board.cache_hierarchy.ruby_system.RequestType.LD.miss_latency_hist_seqr::max_bucket         2559                       (Unspecified)
board.cache_hierarchy.ruby_system.RequestType.LD.miss_latency_hist_seqr::samples      1407057                       (Unspecified)
board.cache_hierarchy.ruby_system.RequestType.LD.miss_latency_hist_seqr::mean    14.440501                       (Unspecified)
board.cache_hierarchy.ruby_system.RequestType.LD.miss_latency_hist_seqr::gmean    13.241878                       (Unspecified)
board.cache_hierarchy.ruby_system.RequestType.LD.miss_latency_hist_seqr::stdev    22.568263                       (Unspecified)
board.cache_hierarchy.ruby_system.RequestType.LD.miss_latency_hist_seqr |     1406340     99.95%     99.95% |         147      0.01%     99.96% |         200      0.01%     99.97% |         273      0.02%     99.99% |          82      0.01%    100.00% |           9      0.00%    100.00% |           0      0.00%    100.00% |           3      0.00%    100.00% |           3      0.00%    100.00% |           0      0.00%    100.00% (Unspecified)
board.cache_hierarchy.ruby_system.RequestType.LD.miss_latency_hist_seqr::total      1407057                       (Unspecified)
board.cache_hierarchy.ruby_system.RequestType.ST.latency_hist_seqr::bucket_size          256                       (Unspecified)
board.cache_hierarchy.ruby_system.RequestType.ST.latency_hist_seqr::max_bucket         2559                       (Unspecified)
board.cache_hierarchy.ruby_system.RequestType.ST.latency_hist_seqr::samples     13108638                       (Unspecified)
board.cache_hierarchy.ruby_system.RequestType.ST.latency_hist_seqr::mean     1.307194                       (Unspecified)
board.cache_hierarchy.ruby_system.RequestType.ST.latency_hist_seqr::gmean     1.007820                       (Unspecified)
board.cache_hierarchy.ruby_system.RequestType.ST.latency_hist_seqr::stdev     9.141177                       (Unspecified)
board.cache_hierarchy.ruby_system.RequestType.ST.latency_hist_seqr |    13107987    100.00%    100.00% |         249      0.00%    100.00% |         103      0.00%    100.00% |         161      0.00%    100.00% |          93      0.00%    100.00% |          42      0.00%    100.00% |           0      0.00%    100.00% |           1      0.00%    100.00% |           2      0.00%    100.00% |           0      0.00%    100.00% (Unspecified)
board.cache_hierarchy.ruby_system.RequestType.ST.latency_hist_seqr::total     13108638                       (Unspecified)
board.cache_hierarchy.ruby_system.RequestType.ST.hit_latency_hist_seqr::bucket_size            1                       (Unspecified)
board.cache_hierarchy.ruby_system.RequestType.ST.hit_latency_hist_seqr::max_bucket            9                       (Unspecified)
board.cache_hierarchy.ruby_system.RequestType.ST.hit_latency_hist_seqr::samples     13089347                       (Unspecified)
board.cache_hierarchy.ruby_system.RequestType.ST.hit_latency_hist_seqr::mean            1                       (Unspecified)
board.cache_hierarchy.ruby_system.RequestType.ST.hit_latency_hist_seqr::gmean            1                       (Unspecified)
board.cache_hierarchy.ruby_system.RequestType.ST.hit_latency_hist_seqr |           0      0.00%      0.00% |    13089347    100.00%    100.00% |           0      0.00%    100.00% |           0      0.00%    100.00% |           0      0.00%    100.00% |           0      0.00%    100.00% |           0      0.00%    100.00% |           0      0.00%    100.00% |           0      0.00%    100.00% |           0      0.00%    100.00% (Unspecified)
board.cache_hierarchy.ruby_system.RequestType.ST.hit_latency_hist_seqr::total     13089347                       (Unspecified)
board.cache_hierarchy.ruby_system.RequestType.ST.miss_latency_hist_seqr::bucket_size          256                       (Unspecified)
board.cache_hierarchy.ruby_system.RequestType.ST.miss_latency_hist_seqr::max_bucket         2559                       (Unspecified)
board.cache_hierarchy.ruby_system.RequestType.ST.miss_latency_hist_seqr::samples        19291                       (Unspecified)
board.cache_hierarchy.ruby_system.RequestType.ST.miss_latency_hist_seqr::mean   209.744751                       (Unspecified)
board.cache_hierarchy.ruby_system.RequestType.ST.miss_latency_hist_seqr::gmean   198.922787                       (Unspecified)
board.cache_hierarchy.ruby_system.RequestType.ST.miss_latency_hist_seqr::stdev   115.203985                       (Unspecified)
board.cache_hierarchy.ruby_system.RequestType.ST.miss_latency_hist_seqr |       18640     96.63%     96.63% |         249      1.29%     97.92% |         103      0.53%     98.45% |         161      0.83%     99.28% |          93      0.48%     99.77% |          42      0.22%     99.98% |           0      0.00%     99.98% |           1      0.01%     99.99% |           2      0.01%    100.00% |           0      0.00%    100.00% (Unspecified)
board.cache_hierarchy.ruby_system.RequestType.ST.miss_latency_hist_seqr::total        19291                       (Unspecified)
board.cache_hierarchy.ruby_system.RequestType.IFETCH.latency_hist_seqr::bucket_size          256                       (Unspecified)
board.cache_hierarchy.ruby_system.RequestType.IFETCH.latency_hist_seqr::max_bucket         2559                       (Unspecified)
board.cache_hierarchy.ruby_system.RequestType.IFETCH.latency_hist_seqr::samples    139591943                       (Unspecified)
board.cache_hierarchy.ruby_system.RequestType.IFETCH.latency_hist_seqr::mean     1.001549                       (Unspecified)
board.cache_hierarchy.ruby_system.RequestType.IFETCH.latency_hist_seqr::gmean     1.000038                       (Unspecified)
board.cache_hierarchy.ruby_system.RequestType.IFETCH.latency_hist_seqr::stdev     0.645308                       (Unspecified)
board.cache_hierarchy.ruby_system.RequestType.IFETCH.latency_hist_seqr |   139591780    100.00%    100.00% |         139      0.00%    100.00% |          15      0.00%    100.00% |           4      0.00%    100.00% |           4      0.00%    100.00% |           1      0.00%    100.00% |           0      0.00%    100.00% |           0      0.00%    100.00% |           0      0.00%    100.00% |           0      0.00%    100.00% (Unspecified)
board.cache_hierarchy.ruby_system.RequestType.IFETCH.latency_hist_seqr::total    139591943                       (Unspecified)
board.cache_hierarchy.ruby_system.RequestType.IFETCH.hit_latency_hist_seqr::bucket_size            1                       (Unspecified)
board.cache_hierarchy.ruby_system.RequestType.IFETCH.hit_latency_hist_seqr::max_bucket            9                       (Unspecified)
board.cache_hierarchy.ruby_system.RequestType.IFETCH.hit_latency_hist_seqr::samples    139590948                       (Unspecified)
board.cache_hierarchy.ruby_system.RequestType.IFETCH.hit_latency_hist_seqr::mean            1                       (Unspecified)
board.cache_hierarchy.ruby_system.RequestType.IFETCH.hit_latency_hist_seqr::gmean            1                       (Unspecified)
board.cache_hierarchy.ruby_system.RequestType.IFETCH.hit_latency_hist_seqr |           0      0.00%      0.00% |   139590948    100.00%    100.00% |           0      0.00%    100.00% |           0      0.00%    100.00% |           0      0.00%    100.00% |           0      0.00%    100.00% |           0      0.00%    100.00% |           0      0.00%    100.00% |           0      0.00%    100.00% |           0      0.00%    100.00% (Unspecified)
board.cache_hierarchy.ruby_system.RequestType.IFETCH.hit_latency_hist_seqr::total    139590948                       (Unspecified)
board.cache_hierarchy.ruby_system.RequestType.IFETCH.miss_latency_hist_seqr::bucket_size          256                       (Unspecified)
board.cache_hierarchy.ruby_system.RequestType.IFETCH.miss_latency_hist_seqr::max_bucket         2559                       (Unspecified)
board.cache_hierarchy.ruby_system.RequestType.IFETCH.miss_latency_hist_seqr::samples          995                       (Unspecified)
board.cache_hierarchy.ruby_system.RequestType.IFETCH.miss_latency_hist_seqr::mean   218.336683                       (Unspecified)
board.cache_hierarchy.ruby_system.RequestType.IFETCH.miss_latency_hist_seqr::gmean   207.108710                       (Unspecified)
board.cache_hierarchy.ruby_system.RequestType.IFETCH.miss_latency_hist_seqr::stdev   105.819073                       (Unspecified)
board.cache_hierarchy.ruby_system.RequestType.IFETCH.miss_latency_hist_seqr |         832     83.62%     83.62% |         139     13.97%     97.59% |          15      1.51%     99.10% |           4      0.40%     99.50% |           4      0.40%     99.90% |           1      0.10%    100.00% |           0      0.00%    100.00% |           0      0.00%    100.00% |           0      0.00%    100.00% |           0      0.00%    100.00% (Unspecified)
board.cache_hierarchy.ruby_system.RequestType.IFETCH.miss_latency_hist_seqr::total          995                       (Unspecified)
board.cache_hierarchy.ruby_system.RequestType.Load_Linked.latency_hist_seqr::bucket_size           32                       (Unspecified)
board.cache_hierarchy.ruby_system.RequestType.Load_Linked.latency_hist_seqr::max_bucket          319                       (Unspecified)
board.cache_hierarchy.ruby_system.RequestType.Load_Linked.latency_hist_seqr::samples           34                       (Unspecified)
board.cache_hierarchy.ruby_system.RequestType.Load_Linked.latency_hist_seqr::mean    16.500000                       (Unspecified)
board.cache_hierarchy.ruby_system.RequestType.Load_Linked.latency_hist_seqr::gmean     1.387828                       (Unspecified)
board.cache_hierarchy.ruby_system.RequestType.Load_Linked.latency_hist_seqr::stdev    63.350038                       (Unspecified)
board.cache_hierarchy.ruby_system.RequestType.Load_Linked.latency_hist_seqr |          32     94.12%     94.12% |           0      0.00%     94.12% |           0      0.00%     94.12% |           0      0.00%     94.12% |           0      0.00%     94.12% |           0      0.00%     94.12% |           0      0.00%     94.12% |           1      2.94%     97.06% |           0      0.00%     97.06% |           1      2.94%    100.00% (Unspecified)
board.cache_hierarchy.ruby_system.RequestType.Load_Linked.latency_hist_seqr::total           34                       (Unspecified)
board.cache_hierarchy.ruby_system.RequestType.Load_Linked.hit_latency_hist_seqr::bucket_size            1                       (Unspecified)
board.cache_hierarchy.ruby_system.RequestType.Load_Linked.hit_latency_hist_seqr::max_bucket            9                       (Unspecified)
board.cache_hierarchy.ruby_system.RequestType.Load_Linked.hit_latency_hist_seqr::samples           32                       (Unspecified)
board.cache_hierarchy.ruby_system.RequestType.Load_Linked.hit_latency_hist_seqr::mean            1                       (Unspecified)
board.cache_hierarchy.ruby_system.RequestType.Load_Linked.hit_latency_hist_seqr::gmean            1                       (Unspecified)
board.cache_hierarchy.ruby_system.RequestType.Load_Linked.hit_latency_hist_seqr |           0      0.00%      0.00% |          32    100.00%    100.00% |           0      0.00%    100.00% |           0      0.00%    100.00% |           0      0.00%    100.00% |           0      0.00%    100.00% |           0      0.00%    100.00% |           0      0.00%    100.00% |           0      0.00%    100.00% |           0      0.00%    100.00% (Unspecified)
board.cache_hierarchy.ruby_system.RequestType.Load_Linked.hit_latency_hist_seqr::total           32                       (Unspecified)
board.cache_hierarchy.ruby_system.RequestType.Load_Linked.miss_latency_hist_seqr::bucket_size           32                       (Unspecified)
board.cache_hierarchy.ruby_system.RequestType.Load_Linked.miss_latency_hist_seqr::max_bucket          319                       (Unspecified)
board.cache_hierarchy.ruby_system.RequestType.Load_Linked.miss_latency_hist_seqr::samples            2                       (Unspecified)
board.cache_hierarchy.ruby_system.RequestType.Load_Linked.miss_latency_hist_seqr::mean   264.500000                       (Unspecified)
board.cache_hierarchy.ruby_system.RequestType.Load_Linked.miss_latency_hist_seqr::gmean   262.849767                       (Unspecified)
board.cache_hierarchy.ruby_system.RequestType.Load_Linked.miss_latency_hist_seqr::stdev    41.719300                       (Unspecified)
board.cache_hierarchy.ruby_system.RequestType.Load_Linked.miss_latency_hist_seqr |           0      0.00%      0.00% |           0      0.00%      0.00% |           0      0.00%      0.00% |           0      0.00%      0.00% |           0      0.00%      0.00% |           0      0.00%      0.00% |           0      0.00%      0.00% |           1     50.00%     50.00% |           0      0.00%     50.00% |           1     50.00%    100.00% (Unspecified)
board.cache_hierarchy.ruby_system.RequestType.Load_Linked.miss_latency_hist_seqr::total            2                       (Unspecified)
board.cache_hierarchy.ruby_system.RequestType.Store_Conditional.latency_hist_seqr::bucket_size            1                       (Unspecified)
board.cache_hierarchy.ruby_system.RequestType.Store_Conditional.latency_hist_seqr::max_bucket            9                       (Unspecified)
board.cache_hierarchy.ruby_system.RequestType.Store_Conditional.latency_hist_seqr::samples           34                       (Unspecified)
board.cache_hierarchy.ruby_system.RequestType.Store_Conditional.latency_hist_seqr::mean            1                       (Unspecified)
board.cache_hierarchy.ruby_system.RequestType.Store_Conditional.latency_hist_seqr::gmean            1                       (Unspecified)
board.cache_hierarchy.ruby_system.RequestType.Store_Conditional.latency_hist_seqr |           0      0.00%      0.00% |          34    100.00%    100.00% |           0      0.00%    100.00% |           0      0.00%    100.00% |           0      0.00%    100.00% |           0      0.00%    100.00% |           0      0.00%    100.00% |           0      0.00%    100.00% |           0      0.00%    100.00% |           0      0.00%    100.00% (Unspecified)
board.cache_hierarchy.ruby_system.RequestType.Store_Conditional.latency_hist_seqr::total           34                       (Unspecified)
board.cache_hierarchy.ruby_system.RequestType.Store_Conditional.hit_latency_hist_seqr::bucket_size            1                       (Unspecified)
board.cache_hierarchy.ruby_system.RequestType.Store_Conditional.hit_latency_hist_seqr::max_bucket            9                       (Unspecified)
board.cache_hierarchy.ruby_system.RequestType.Store_Conditional.hit_latency_hist_seqr::samples           34                       (Unspecified)
board.cache_hierarchy.ruby_system.RequestType.Store_Conditional.hit_latency_hist_seqr::mean            1                       (Unspecified)
board.cache_hierarchy.ruby_system.RequestType.Store_Conditional.hit_latency_hist_seqr::gmean            1                       (Unspecified)
board.cache_hierarchy.ruby_system.RequestType.Store_Conditional.hit_latency_hist_seqr |           0      0.00%      0.00% |          34    100.00%    100.00% |           0      0.00%    100.00% |           0      0.00%    100.00% |           0      0.00%    100.00% |           0      0.00%    100.00% |           0      0.00%    100.00% |           0      0.00%    100.00% |           0      0.00%    100.00% |           0      0.00%    100.00% (Unspecified)
board.cache_hierarchy.ruby_system.RequestType.Store_Conditional.hit_latency_hist_seqr::total           34                       (Unspecified)
board.cache_hierarchy.ruby_system.directory_controllers.power_state.pwrStateResidencyTicks::UNDEFINED 100237779750                       # Cumulative time (in ticks) in various power states (Tick)
board.cache_hierarchy.ruby_system.directory_controllers.requestToDir.m_msg_count        28779                       # Number of messages passed the buffer (Count)
board.cache_hierarchy.ruby_system.directory_controllers.requestToDir.m_buf_msgs     0.000072                       # Average number of messages in buffer ((Count/Tick))
board.cache_hierarchy.ruby_system.directory_controllers.requestToMemory.m_msg_count        39124                       # Number of messages passed the buffer (Count)
board.cache_hierarchy.ruby_system.directory_controllers.requestToMemory.m_buf_msgs     0.000098                       # Average number of messages in buffer ((Count/Tick))
board.cache_hierarchy.ruby_system.directory_controllers.requestToMemory.m_stall_time          250                       # Total number of ticks messages were stalled in this buffer (Tick)
board.cache_hierarchy.ruby_system.directory_controllers.requestToMemory.m_avg_stall_time     0.006390                       # Average stall ticks per message ((Tick/Count))
board.cache_hierarchy.ruby_system.directory_controllers.responseFromDir.m_msg_count        41174                       # Number of messages passed the buffer (Count)
board.cache_hierarchy.ruby_system.directory_controllers.responseFromDir.m_buf_msgs     0.000103                       # Average number of messages in buffer ((Count/Tick))
board.cache_hierarchy.ruby_system.directory_controllers.responseFromMemory.m_msg_count        39124                       # Number of messages passed the buffer (Count)
board.cache_hierarchy.ruby_system.directory_controllers.responseFromMemory.m_buf_msgs     0.000098                       # Average number of messages in buffer ((Count/Tick))
board.cache_hierarchy.ruby_system.directory_controllers.responseToDir.m_msg_count        12395                       # Number of messages passed the buffer (Count)
board.cache_hierarchy.ruby_system.directory_controllers.responseToDir.m_buf_msgs     0.000031                       # Average number of messages in buffer ((Count/Tick))
board.cache_hierarchy.ruby_system.l1_controllers.delayHistogram::samples      2853356                       # delay_histogram (Unspecified)
board.cache_hierarchy.ruby_system.l1_controllers.delayHistogram::0      2853356    100.00%    100.00% # delay_histogram (Unspecified)
board.cache_hierarchy.ruby_system.l1_controllers.delayHistogram::total      2853356                       # delay_histogram (Unspecified)
board.cache_hierarchy.ruby_system.l1_controllers.L1Dcache.m_demand_hits     47879655                       # Number of cache demand hits (Unspecified)
board.cache_hierarchy.ruby_system.l1_controllers.L1Dcache.m_demand_misses      1426350                       # Number of cache demand misses (Unspecified)
board.cache_hierarchy.ruby_system.l1_controllers.L1Dcache.m_demand_accesses     49306005                       # Number of cache demand accesses (Unspecified)
board.cache_hierarchy.ruby_system.l1_controllers.L1Icache.m_demand_hits    139590948                       # Number of cache demand hits (Unspecified)
board.cache_hierarchy.ruby_system.l1_controllers.L1Icache.m_demand_misses          995                       # Number of cache demand misses (Unspecified)
board.cache_hierarchy.ruby_system.l1_controllers.L1Icache.m_demand_accesses    139591943                       # Number of cache demand accesses (Unspecified)
board.cache_hierarchy.ruby_system.l1_controllers.mandatoryQueue.m_msg_count    188897948                       # Number of messages passed the buffer (Count)
board.cache_hierarchy.ruby_system.l1_controllers.mandatoryQueue.m_buf_msgs     0.471125                       # Average number of messages in buffer ((Count/Tick))
board.cache_hierarchy.ruby_system.l1_controllers.power_state.pwrStateResidencyTicks::UNDEFINED 100237779750                       # Cumulative time (in ticks) in various power states (Tick)
board.cache_hierarchy.ruby_system.l1_controllers.prefetcher.RubyPrefetcher.numMissObserved            0                       # Number of misses observed (Unspecified)
board.cache_hierarchy.ruby_system.l1_controllers.prefetcher.RubyPrefetcher.numAllocatedStreams            0                       # Number of streams allocated for prefetching (Unspecified)
board.cache_hierarchy.ruby_system.l1_controllers.prefetcher.RubyPrefetcher.numPrefetchRequested            0                       # Number of prefetch requests made (Unspecified)
board.cache_hierarchy.ruby_system.l1_controllers.prefetcher.RubyPrefetcher.numHits            0                       # Number of prefetched blocks accessed (for the first time) (Unspecified)
board.cache_hierarchy.ruby_system.l1_controllers.prefetcher.RubyPrefetcher.numPartialHits            0                       # Number of misses observed for a block being prefetched (Unspecified)
board.cache_hierarchy.ruby_system.l1_controllers.prefetcher.RubyPrefetcher.numPagesCrossed            0                       # Number of prefetches across pages (Unspecified)
board.cache_hierarchy.ruby_system.l1_controllers.prefetcher.RubyPrefetcher.numMissedPrefetchedBlocks            0                       # Number of misses for blocks that were prefetched, yet missed (Unspecified)
board.cache_hierarchy.ruby_system.l1_controllers.requestFromL1Cache.m_msg_count      2852528                       # Number of messages passed the buffer (Count)
board.cache_hierarchy.ruby_system.l1_controllers.requestFromL1Cache.m_buf_msgs     0.014229                       # Average number of messages in buffer ((Count/Tick))
board.cache_hierarchy.ruby_system.l1_controllers.requestToL1Cache.m_msg_count          828                       # Number of messages passed the buffer (Count)
board.cache_hierarchy.ruby_system.l1_controllers.requestToL1Cache.m_buf_msgs     0.000002                       # Average number of messages in buffer ((Count/Tick))
board.cache_hierarchy.ruby_system.l1_controllers.responseFromL1Cache.m_msg_count          828                       # Number of messages passed the buffer (Count)
board.cache_hierarchy.ruby_system.l1_controllers.responseFromL1Cache.m_buf_msgs     0.000004                       # Average number of messages in buffer ((Count/Tick))
board.cache_hierarchy.ruby_system.l1_controllers.responseToL1Cache.m_msg_count      2852528                       # Number of messages passed the buffer (Count)
board.cache_hierarchy.ruby_system.l1_controllers.responseToL1Cache.m_buf_msgs     0.007114                       # Average number of messages in buffer ((Count/Tick))
board.cache_hierarchy.ruby_system.l1_controllers.sequencer.power_state.pwrStateResidencyTicks::UNDEFINED 100237779750                       # Cumulative time (in ticks) in various power states (Tick)
board.cache_hierarchy.ruby_system.l1_controllers.unblockFromL1Cache.m_msg_count      1426350                       # Number of messages passed the buffer (Count)
board.cache_hierarchy.ruby_system.l1_controllers.unblockFromL1Cache.m_buf_msgs     0.003557                       # Average number of messages in buffer ((Count/Tick))
board.cache_hierarchy.ruby_system.l2_controllers0.delayHistogram::samples      1079356                       # delay_histogram (Unspecified)
board.cache_hierarchy.ruby_system.l2_controllers0.delayHistogram::mean     0.047213                       # delay_histogram (Unspecified)
board.cache_hierarchy.ruby_system.l2_controllers0.delayHistogram::stdev     0.612763                       # delay_histogram (Unspecified)
board.cache_hierarchy.ruby_system.l2_controllers0.delayHistogram::0      1072986     99.41%     99.41% # delay_histogram (Unspecified)
board.cache_hierarchy.ruby_system.l2_controllers0.delayHistogram::8         6370      0.59%    100.00% # delay_histogram (Unspecified)
board.cache_hierarchy.ruby_system.l2_controllers0.delayHistogram::total      1079356                       # delay_histogram (Unspecified)
board.cache_hierarchy.ruby_system.l2_controllers0.DirRequestFromL2Cache.m_msg_count         7230                       # Number of messages passed the buffer (Count)
board.cache_hierarchy.ruby_system.l2_controllers0.DirRequestFromL2Cache.m_buf_msgs     0.000036                       # Average number of messages in buffer ((Count/Tick))
board.cache_hierarchy.ruby_system.l2_controllers0.L1RequestFromL2Cache.m_msg_count          217                       # Number of messages passed the buffer (Count)
board.cache_hierarchy.ruby_system.l2_controllers0.L1RequestFromL2Cache.m_buf_msgs     0.000001                       # Average number of messages in buffer ((Count/Tick))
board.cache_hierarchy.ruby_system.l2_controllers0.L1RequestToL2Cache.m_msg_count       712506                       # Number of messages passed the buffer (Count)
board.cache_hierarchy.ruby_system.l2_controllers0.L1RequestToL2Cache.m_buf_msgs     0.001777                       # Average number of messages in buffer ((Count/Tick))
board.cache_hierarchy.ruby_system.l2_controllers0.L2cache.m_demand_hits       349300                       # Number of cache demand hits (Unspecified)
board.cache_hierarchy.ruby_system.l2_controllers0.L2cache.m_demand_misses         7230                       # Number of cache demand misses (Unspecified)
board.cache_hierarchy.ruby_system.l2_controllers0.L2cache.m_demand_accesses       356530                       # Number of cache demand accesses (Unspecified)
board.cache_hierarchy.ruby_system.l2_controllers0.power_state.pwrStateResidencyTicks::UNDEFINED 100237779750                       # Cumulative time (in ticks) in various power states (Tick)
board.cache_hierarchy.ruby_system.l2_controllers0.responseFromL2Cache.m_msg_count       715640                       # Number of messages passed the buffer (Count)
board.cache_hierarchy.ruby_system.l2_controllers0.responseFromL2Cache.m_buf_msgs     0.002664                       # Average number of messages in buffer ((Count/Tick))
board.cache_hierarchy.ruby_system.l2_controllers0.responseToL2Cache.m_msg_count        10581                       # Number of messages passed the buffer (Count)
board.cache_hierarchy.ruby_system.l2_controllers0.responseToL2Cache.m_buf_msgs     0.000026                       # Average number of messages in buffer ((Count/Tick))
board.cache_hierarchy.ruby_system.l2_controllers0.unblockToL2Cache.m_msg_count       356269                       # Number of messages passed the buffer (Count)
board.cache_hierarchy.ruby_system.l2_controllers0.unblockToL2Cache.m_buf_msgs     0.000889                       # Average number of messages in buffer ((Count/Tick))
board.cache_hierarchy.ruby_system.l2_controllers1.delayHistogram::samples      1080344                       # delay_histogram (Unspecified)
board.cache_hierarchy.ruby_system.l2_controllers1.delayHistogram::mean     0.047141                       # delay_histogram (Unspecified)
board.cache_hierarchy.ruby_system.l2_controllers1.delayHistogram::stdev     0.612293                       # delay_histogram (Unspecified)
board.cache_hierarchy.ruby_system.l2_controllers1.delayHistogram::0      1073978     99.41%     99.41% # delay_histogram (Unspecified)
board.cache_hierarchy.ruby_system.l2_controllers1.delayHistogram::8         6366      0.59%    100.00% # delay_histogram (Unspecified)
board.cache_hierarchy.ruby_system.l2_controllers1.delayHistogram::total      1080344                       # delay_histogram (Unspecified)
board.cache_hierarchy.ruby_system.l2_controllers1.DirRequestFromL2Cache.m_msg_count         7187                       # Number of messages passed the buffer (Count)
board.cache_hierarchy.ruby_system.l2_controllers1.DirRequestFromL2Cache.m_buf_msgs     0.000036                       # Average number of messages in buffer ((Count/Tick))
board.cache_hierarchy.ruby_system.l2_controllers1.L1RequestFromL2Cache.m_msg_count          209                       # Number of messages passed the buffer (Count)
board.cache_hierarchy.ruby_system.l2_controllers1.L1RequestFromL2Cache.m_buf_msgs     0.000001                       # Average number of messages in buffer ((Count/Tick))
board.cache_hierarchy.ruby_system.l2_controllers1.L1RequestToL2Cache.m_msg_count       713228                       # Number of messages passed the buffer (Count)
board.cache_hierarchy.ruby_system.l2_controllers1.L1RequestToL2Cache.m_buf_msgs     0.001779                       # Average number of messages in buffer ((Count/Tick))
board.cache_hierarchy.ruby_system.l2_controllers1.L2cache.m_demand_hits       349701                       # Number of cache demand hits (Unspecified)
board.cache_hierarchy.ruby_system.l2_controllers1.L2cache.m_demand_misses         7187                       # Number of cache demand misses (Unspecified)
board.cache_hierarchy.ruby_system.l2_controllers1.L2cache.m_demand_accesses       356888                       # Number of cache demand accesses (Unspecified)
board.cache_hierarchy.ruby_system.l2_controllers1.power_state.pwrStateResidencyTicks::UNDEFINED 100237779750                       # Cumulative time (in ticks) in various power states (Tick)
board.cache_hierarchy.ruby_system.l2_controllers1.responseFromL2Cache.m_msg_count       716319                       # Number of messages passed the buffer (Count)
board.cache_hierarchy.ruby_system.l2_controllers1.responseFromL2Cache.m_buf_msgs     0.002666                       # Average number of messages in buffer ((Count/Tick))
board.cache_hierarchy.ruby_system.l2_controllers1.responseToL2Cache.m_msg_count        10487                       # Number of messages passed the buffer (Count)
board.cache_hierarchy.ruby_system.l2_controllers1.responseToL2Cache.m_buf_msgs     0.000026                       # Average number of messages in buffer ((Count/Tick))
board.cache_hierarchy.ruby_system.l2_controllers1.unblockToL2Cache.m_msg_count       356629                       # Number of messages passed the buffer (Count)
board.cache_hierarchy.ruby_system.l2_controllers1.unblockToL2Cache.m_buf_msgs     0.000889                       # Average number of messages in buffer ((Count/Tick))
board.cache_hierarchy.ruby_system.l2_controllers2.delayHistogram::samples      1080041                       # delay_histogram (Unspecified)
board.cache_hierarchy.ruby_system.l2_controllers2.delayHistogram::mean     0.047161                       # delay_histogram (Unspecified)
board.cache_hierarchy.ruby_system.l2_controllers2.delayHistogram::stdev     0.612426                       # delay_histogram (Unspecified)
board.cache_hierarchy.ruby_system.l2_controllers2.delayHistogram::0      1073674     99.41%     99.41% # delay_histogram (Unspecified)
board.cache_hierarchy.ruby_system.l2_controllers2.delayHistogram::8         6367      0.59%    100.00% # delay_histogram (Unspecified)
board.cache_hierarchy.ruby_system.l2_controllers2.delayHistogram::total      1080041                       # delay_histogram (Unspecified)
board.cache_hierarchy.ruby_system.l2_controllers2.DirRequestFromL2Cache.m_msg_count         7156                       # Number of messages passed the buffer (Count)
board.cache_hierarchy.ruby_system.l2_controllers2.DirRequestFromL2Cache.m_buf_msgs     0.000036                       # Average number of messages in buffer ((Count/Tick))
board.cache_hierarchy.ruby_system.l2_controllers2.L1RequestFromL2Cache.m_msg_count          198                       # Number of messages passed the buffer (Count)
board.cache_hierarchy.ruby_system.l2_controllers2.L1RequestFromL2Cache.m_buf_msgs     0.000000                       # Average number of messages in buffer ((Count/Tick))
board.cache_hierarchy.ruby_system.l2_controllers2.L1RequestToL2Cache.m_msg_count       713064                       # Number of messages passed the buffer (Count)
board.cache_hierarchy.ruby_system.l2_controllers2.L1RequestToL2Cache.m_buf_msgs     0.001778                       # Average number of messages in buffer ((Count/Tick))
board.cache_hierarchy.ruby_system.l2_controllers2.L2cache.m_demand_hits       349637                       # Number of cache demand hits (Unspecified)
board.cache_hierarchy.ruby_system.l2_controllers2.L2cache.m_demand_misses         7156                       # Number of cache demand misses (Unspecified)
board.cache_hierarchy.ruby_system.l2_controllers2.L2cache.m_demand_accesses       356793                       # Number of cache demand accesses (Unspecified)
board.cache_hierarchy.ruby_system.l2_controllers2.power_state.pwrStateResidencyTicks::UNDEFINED 100237779750                       # Cumulative time (in ticks) in various power states (Tick)
board.cache_hierarchy.ruby_system.l2_controllers2.responseFromL2Cache.m_msg_count       716124                       # Number of messages passed the buffer (Count)
board.cache_hierarchy.ruby_system.l2_controllers2.responseFromL2Cache.m_buf_msgs     0.002666                       # Average number of messages in buffer ((Count/Tick))
board.cache_hierarchy.ruby_system.l2_controllers2.responseToL2Cache.m_msg_count        10414                       # Number of messages passed the buffer (Count)
board.cache_hierarchy.ruby_system.l2_controllers2.responseToL2Cache.m_buf_msgs     0.000026                       # Average number of messages in buffer ((Count/Tick))
board.cache_hierarchy.ruby_system.l2_controllers2.unblockToL2Cache.m_msg_count       356563                       # Number of messages passed the buffer (Count)
board.cache_hierarchy.ruby_system.l2_controllers2.unblockToL2Cache.m_buf_msgs     0.000889                       # Average number of messages in buffer ((Count/Tick))
board.cache_hierarchy.ruby_system.l2_controllers3.delayHistogram::samples      1081139                       # delay_histogram (Unspecified)
board.cache_hierarchy.ruby_system.l2_controllers3.delayHistogram::mean     0.047165                       # delay_histogram (Unspecified)
board.cache_hierarchy.ruby_system.l2_controllers3.delayHistogram::stdev     0.612451                       # delay_histogram (Unspecified)
board.cache_hierarchy.ruby_system.l2_controllers3.delayHistogram::0      1074765     99.41%     99.41% # delay_histogram (Unspecified)
board.cache_hierarchy.ruby_system.l2_controllers3.delayHistogram::8         6374      0.59%    100.00% # delay_histogram (Unspecified)
board.cache_hierarchy.ruby_system.l2_controllers3.delayHistogram::total      1081139                       # delay_histogram (Unspecified)
board.cache_hierarchy.ruby_system.l2_controllers3.DirRequestFromL2Cache.m_msg_count         7206                       # Number of messages passed the buffer (Count)
board.cache_hierarchy.ruby_system.l2_controllers3.DirRequestFromL2Cache.m_buf_msgs     0.000036                       # Average number of messages in buffer ((Count/Tick))
board.cache_hierarchy.ruby_system.l2_controllers3.L1RequestFromL2Cache.m_msg_count          204                       # Number of messages passed the buffer (Count)
board.cache_hierarchy.ruby_system.l2_controllers3.L1RequestFromL2Cache.m_buf_msgs     0.000001                       # Average number of messages in buffer ((Count/Tick))
board.cache_hierarchy.ruby_system.l2_controllers3.L1RequestToL2Cache.m_msg_count       713730                       # Number of messages passed the buffer (Count)
board.cache_hierarchy.ruby_system.l2_controllers3.L1RequestToL2Cache.m_buf_msgs     0.001780                       # Average number of messages in buffer ((Count/Tick))
board.cache_hierarchy.ruby_system.l2_controllers3.L2cache.m_demand_hits       349928                       # Number of cache demand hits (Unspecified)
board.cache_hierarchy.ruby_system.l2_controllers3.L2cache.m_demand_misses         7206                       # Number of cache demand misses (Unspecified)
board.cache_hierarchy.ruby_system.l2_controllers3.L2cache.m_demand_accesses       357134                       # Number of cache demand accesses (Unspecified)
board.cache_hierarchy.ruby_system.l2_controllers3.power_state.pwrStateResidencyTicks::UNDEFINED 100237779750                       # Cumulative time (in ticks) in various power states (Tick)
board.cache_hierarchy.ruby_system.l2_controllers3.responseFromL2Cache.m_msg_count       716840                       # Number of messages passed the buffer (Count)
board.cache_hierarchy.ruby_system.l2_controllers3.responseFromL2Cache.m_buf_msgs     0.002668                       # Average number of messages in buffer ((Count/Tick))
board.cache_hierarchy.ruby_system.l2_controllers3.responseToL2Cache.m_msg_count        10520                       # Number of messages passed the buffer (Count)
board.cache_hierarchy.ruby_system.l2_controllers3.responseToL2Cache.m_buf_msgs     0.000026                       # Average number of messages in buffer ((Count/Tick))
board.cache_hierarchy.ruby_system.l2_controllers3.unblockToL2Cache.m_msg_count       356889                       # Number of messages passed the buffer (Count)
board.cache_hierarchy.ruby_system.l2_controllers3.unblockToL2Cache.m_buf_msgs     0.000890                       # Average number of messages in buffer ((Count/Tick))
board.cache_hierarchy.ruby_system.network.msg_count.Control      2912248                       (Unspecified)
board.cache_hierarchy.ruby_system.network.msg_byte.Control     23297984                       (Unspecified)
board.cache_hierarchy.ruby_system.network.msg_count.Request_Control         1656                       (Unspecified)
board.cache_hierarchy.ruby_system.network.msg_byte.Request_Control        13248                       (Unspecified)
board.cache_hierarchy.ruby_system.network.msg_count.Response_Data      2932938                       (Unspecified)
board.cache_hierarchy.ruby_system.network.msg_byte.Response_Data    211171536                       (Unspecified)
board.cache_hierarchy.ruby_system.network.msg_count.Response_Control      5733362                       (Unspecified)
board.cache_hierarchy.ruby_system.network.msg_byte.Response_Control     45866896                       (Unspecified)
board.cache_hierarchy.ruby_system.network.msg_count.Writeback_Data        51204                       (Unspecified)
board.cache_hierarchy.ruby_system.network.msg_byte.Writeback_Data      3686688                       (Unspecified)
board.cache_hierarchy.ruby_system.network.msg_count.Writeback_Control      2799412                       (Unspecified)
board.cache_hierarchy.ruby_system.network.msg_byte.Writeback_Control     22395296                       (Unspecified)
board.cache_hierarchy.ruby_system.network.int_links0.buffers0.m_msg_count       712506                       # Number of messages passed the buffer (Count)
board.cache_hierarchy.ruby_system.network.int_links0.buffers0.m_buf_msgs     0.001777                       # Average number of messages in buffer ((Count/Tick))
board.cache_hierarchy.ruby_system.network.int_links0.buffers1.m_msg_count          217                       # Number of messages passed the buffer (Count)
board.cache_hierarchy.ruby_system.network.int_links0.buffers1.m_buf_msgs     0.000001                       # Average number of messages in buffer ((Count/Tick))
board.cache_hierarchy.ruby_system.network.int_links0.buffers2.m_msg_count       356269                       # Number of messages passed the buffer (Count)
board.cache_hierarchy.ruby_system.network.int_links0.buffers2.m_buf_msgs     0.000889                       # Average number of messages in buffer ((Count/Tick))
board.cache_hierarchy.ruby_system.network.int_links1.buffers0.m_msg_count       713228                       # Number of messages passed the buffer (Count)
board.cache_hierarchy.ruby_system.network.int_links1.buffers0.m_buf_msgs     0.001779                       # Average number of messages in buffer ((Count/Tick))
board.cache_hierarchy.ruby_system.network.int_links1.buffers1.m_msg_count          209                       # Number of messages passed the buffer (Count)
board.cache_hierarchy.ruby_system.network.int_links1.buffers1.m_buf_msgs     0.000001                       # Average number of messages in buffer ((Count/Tick))
board.cache_hierarchy.ruby_system.network.int_links1.buffers2.m_msg_count       356629                       # Number of messages passed the buffer (Count)
board.cache_hierarchy.ruby_system.network.int_links1.buffers2.m_buf_msgs     0.000889                       # Average number of messages in buffer ((Count/Tick))
board.cache_hierarchy.ruby_system.network.int_links10.buffers1.m_msg_count       713228                       # Number of messages passed the buffer (Count)
board.cache_hierarchy.ruby_system.network.int_links10.buffers1.m_buf_msgs     0.001779                       # Average number of messages in buffer ((Count/Tick))
board.cache_hierarchy.ruby_system.network.int_links10.buffers2.m_msg_count          209                       # Number of messages passed the buffer (Count)
board.cache_hierarchy.ruby_system.network.int_links10.buffers2.m_buf_msgs     0.000001                       # Average number of messages in buffer ((Count/Tick))
board.cache_hierarchy.ruby_system.network.int_links14.buffers0.m_msg_count         7187                       # Number of messages passed the buffer (Count)
board.cache_hierarchy.ruby_system.network.int_links14.buffers0.m_buf_msgs     0.000018                       # Average number of messages in buffer ((Count/Tick))
board.cache_hierarchy.ruby_system.network.int_links14.buffers1.m_msg_count         3091                       # Number of messages passed the buffer (Count)
board.cache_hierarchy.ruby_system.network.int_links14.buffers1.m_buf_msgs     0.000008                       # Average number of messages in buffer ((Count/Tick))
board.cache_hierarchy.ruby_system.network.int_links15.buffers1.m_msg_count       713064                       # Number of messages passed the buffer (Count)
board.cache_hierarchy.ruby_system.network.int_links15.buffers1.m_buf_msgs     0.001778                       # Average number of messages in buffer ((Count/Tick))
board.cache_hierarchy.ruby_system.network.int_links15.buffers2.m_msg_count          198                       # Number of messages passed the buffer (Count)
board.cache_hierarchy.ruby_system.network.int_links15.buffers2.m_buf_msgs     0.000000                       # Average number of messages in buffer ((Count/Tick))
board.cache_hierarchy.ruby_system.network.int_links19.buffers0.m_msg_count         7156                       # Number of messages passed the buffer (Count)
board.cache_hierarchy.ruby_system.network.int_links19.buffers0.m_buf_msgs     0.000018                       # Average number of messages in buffer ((Count/Tick))
board.cache_hierarchy.ruby_system.network.int_links19.buffers1.m_msg_count         3060                       # Number of messages passed the buffer (Count)
board.cache_hierarchy.ruby_system.network.int_links19.buffers1.m_buf_msgs     0.000008                       # Average number of messages in buffer ((Count/Tick))
board.cache_hierarchy.ruby_system.network.int_links2.buffers0.m_msg_count       713064                       # Number of messages passed the buffer (Count)
board.cache_hierarchy.ruby_system.network.int_links2.buffers0.m_buf_msgs     0.001778                       # Average number of messages in buffer ((Count/Tick))
board.cache_hierarchy.ruby_system.network.int_links2.buffers1.m_msg_count          198                       # Number of messages passed the buffer (Count)
board.cache_hierarchy.ruby_system.network.int_links2.buffers1.m_buf_msgs     0.000000                       # Average number of messages in buffer ((Count/Tick))
board.cache_hierarchy.ruby_system.network.int_links2.buffers2.m_msg_count       356563                       # Number of messages passed the buffer (Count)
board.cache_hierarchy.ruby_system.network.int_links2.buffers2.m_buf_msgs     0.000889                       # Average number of messages in buffer ((Count/Tick))
board.cache_hierarchy.ruby_system.network.int_links20.buffers1.m_msg_count       713730                       # Number of messages passed the buffer (Count)
board.cache_hierarchy.ruby_system.network.int_links20.buffers1.m_buf_msgs     0.001780                       # Average number of messages in buffer ((Count/Tick))
board.cache_hierarchy.ruby_system.network.int_links20.buffers2.m_msg_count          204                       # Number of messages passed the buffer (Count)
board.cache_hierarchy.ruby_system.network.int_links20.buffers2.m_buf_msgs     0.000001                       # Average number of messages in buffer ((Count/Tick))
board.cache_hierarchy.ruby_system.network.int_links24.buffers0.m_msg_count         7206                       # Number of messages passed the buffer (Count)
board.cache_hierarchy.ruby_system.network.int_links24.buffers0.m_buf_msgs     0.000018                       # Average number of messages in buffer ((Count/Tick))
board.cache_hierarchy.ruby_system.network.int_links24.buffers1.m_msg_count         3110                       # Number of messages passed the buffer (Count)
board.cache_hierarchy.ruby_system.network.int_links24.buffers1.m_buf_msgs     0.000008                       # Average number of messages in buffer ((Count/Tick))
board.cache_hierarchy.ruby_system.network.int_links26.buffers1.m_msg_count        10364                       # Number of messages passed the buffer (Count)
board.cache_hierarchy.ruby_system.network.int_links26.buffers1.m_buf_msgs     0.000026                       # Average number of messages in buffer ((Count/Tick))
board.cache_hierarchy.ruby_system.network.int_links27.buffers1.m_msg_count        10278                       # Number of messages passed the buffer (Count)
board.cache_hierarchy.ruby_system.network.int_links27.buffers1.m_buf_msgs     0.000026                       # Average number of messages in buffer ((Count/Tick))
board.cache_hierarchy.ruby_system.network.int_links28.buffers1.m_msg_count        10216                       # Number of messages passed the buffer (Count)
board.cache_hierarchy.ruby_system.network.int_links28.buffers1.m_buf_msgs     0.000025                       # Average number of messages in buffer ((Count/Tick))
board.cache_hierarchy.ruby_system.network.int_links29.buffers1.m_msg_count        10316                       # Number of messages passed the buffer (Count)
board.cache_hierarchy.ruby_system.network.int_links29.buffers1.m_buf_msgs     0.000026                       # Average number of messages in buffer ((Count/Tick))
board.cache_hierarchy.ruby_system.network.int_links3.buffers0.m_msg_count       713730                       # Number of messages passed the buffer (Count)
board.cache_hierarchy.ruby_system.network.int_links3.buffers0.m_buf_msgs     0.001780                       # Average number of messages in buffer ((Count/Tick))
board.cache_hierarchy.ruby_system.network.int_links3.buffers1.m_msg_count          204                       # Number of messages passed the buffer (Count)
board.cache_hierarchy.ruby_system.network.int_links3.buffers1.m_buf_msgs     0.000001                       # Average number of messages in buffer ((Count/Tick))
board.cache_hierarchy.ruby_system.network.int_links3.buffers2.m_msg_count       356889                       # Number of messages passed the buffer (Count)
board.cache_hierarchy.ruby_system.network.int_links3.buffers2.m_buf_msgs     0.000890                       # Average number of messages in buffer ((Count/Tick))
board.cache_hierarchy.ruby_system.network.int_links5.buffers1.m_msg_count       712506                       # Number of messages passed the buffer (Count)
board.cache_hierarchy.ruby_system.network.int_links5.buffers1.m_buf_msgs     0.001777                       # Average number of messages in buffer ((Count/Tick))
board.cache_hierarchy.ruby_system.network.int_links5.buffers2.m_msg_count          217                       # Number of messages passed the buffer (Count)
board.cache_hierarchy.ruby_system.network.int_links5.buffers2.m_buf_msgs     0.000001                       # Average number of messages in buffer ((Count/Tick))
board.cache_hierarchy.ruby_system.network.int_links9.buffers0.m_msg_count         7230                       # Number of messages passed the buffer (Count)
board.cache_hierarchy.ruby_system.network.int_links9.buffers0.m_buf_msgs     0.000018                       # Average number of messages in buffer ((Count/Tick))
board.cache_hierarchy.ruby_system.network.int_links9.buffers1.m_msg_count         3134                       # Number of messages passed the buffer (Count)
board.cache_hierarchy.ruby_system.network.int_links9.buffers1.m_buf_msgs     0.000008                       # Average number of messages in buffer ((Count/Tick))
board.cache_hierarchy.ruby_system.network.power_state.pwrStateResidencyTicks::UNDEFINED 100237779750                       # Cumulative time (in ticks) in various power states (Tick)
board.cache_hierarchy.ruby_system.network.routers0.percent_links_utilized     0.389836                       (Unspecified)
board.cache_hierarchy.ruby_system.network.routers0.msg_count.Control::0      1427345                       (Unspecified)
board.cache_hierarchy.ruby_system.network.routers0.msg_bytes.Control::0     11418760                       (Unspecified)
board.cache_hierarchy.ruby_system.network.routers0.msg_count.Request_Control::2          828                       (Unspecified)
board.cache_hierarchy.ruby_system.network.routers0.msg_bytes.Request_Control::2         6624                       (Unspecified)
board.cache_hierarchy.ruby_system.network.routers0.msg_count.Response_Data::1      1427345                       (Unspecified)
board.cache_hierarchy.ruby_system.network.routers0.msg_bytes.Response_Data::1    102768840                       (Unspecified)
board.cache_hierarchy.ruby_system.network.routers0.msg_count.Response_Control::1      1425886                       (Unspecified)
board.cache_hierarchy.ruby_system.network.routers0.msg_count.Response_Control::2      1426350                       (Unspecified)
board.cache_hierarchy.ruby_system.network.routers0.msg_bytes.Response_Control::1     11407088                       (Unspecified)
board.cache_hierarchy.ruby_system.network.routers0.msg_bytes.Response_Control::2     11410800                       (Unspecified)
board.cache_hierarchy.ruby_system.network.routers0.msg_count.Writeback_Data::0        25477                       (Unspecified)
board.cache_hierarchy.ruby_system.network.routers0.msg_count.Writeback_Data::1          125                       (Unspecified)
board.cache_hierarchy.ruby_system.network.routers0.msg_bytes.Writeback_Data::0      1834344                       (Unspecified)
board.cache_hierarchy.ruby_system.network.routers0.msg_bytes.Writeback_Data::1         9000                       (Unspecified)
board.cache_hierarchy.ruby_system.network.routers0.msg_count.Writeback_Control::0      1399706                       (Unspecified)
board.cache_hierarchy.ruby_system.network.routers0.msg_bytes.Writeback_Control::0     11197648                       (Unspecified)
board.cache_hierarchy.ruby_system.network.routers0.port_buffers1.m_msg_count      2852528                       # Number of messages passed the buffer (Count)
board.cache_hierarchy.ruby_system.network.routers0.port_buffers1.m_buf_msgs     0.007114                       # Average number of messages in buffer ((Count/Tick))
board.cache_hierarchy.ruby_system.network.routers0.port_buffers10.m_msg_count          198                       # Number of messages passed the buffer (Count)
board.cache_hierarchy.ruby_system.network.routers0.port_buffers10.m_buf_msgs     0.000000                       # Average number of messages in buffer ((Count/Tick))
board.cache_hierarchy.ruby_system.network.routers0.port_buffers11.m_msg_count       356563                       # Number of messages passed the buffer (Count)
[...]
board.processor.cores.core.commitStats0.committedInstType::IntMult          681      0.00%     40.28% # Class of committed instruction. (Count)
board.processor.cores.core.commitStats0.committedInstType::IntDiv           32      0.00%     40.28% # Class of committed instruction. (Count)
board.processor.cores.core.commitStats0.committedInstType::FloatAdd       100352      0.10%     40.38% # Class of committed instruction. (Count)
board.processor.cores.core.commitStats0.committedInstType::FloatCmp       100354      0.10%     40.48% # Class of committed instruction. (Count)
board.processor.cores.core.commitStats0.committedInstType::FloatCvt       301062      0.29%     40.77% # Class of committed instruction. (Count)
board.processor.cores.core.commitStats0.committedInstType::FloatMult       200704      0.19%     40.96% # Class of committed instruction. (Count)
board.processor.cores.core.commitStats0.committedInstType::FloatMultAcc     11440128     11.08%     52.04% # Class of committed instruction. (Count)
board.processor.cores.core.commitStats0.committedInstType::FloatDiv       100353      0.10%     52.14% # Class of committed instruction. (Count)
board.processor.cores.core.commitStats0.committedInstType::FloatMisc       100356      0.10%     52.24% # Class of committed instruction. (Count)
board.processor.cores.core.commitStats0.committedInstType::FloatSqrt            0      0.00%     52.24% # Class of committed instruction. (Count)
board.processor.cores.core.commitStats0.committedInstType::SimdAdd            0      0.00%     52.24% # Class of committed instruction. (Count)
board.processor.cores.core.commitStats0.committedInstType::SimdAddAcc            0      0.00%     52.24% # Class of committed instruction. (Count)
board.processor.cores.core.commitStats0.committedInstType::SimdAlu            0      0.00%     52.24% # Class of committed instruction. (Count)
board.processor.cores.core.commitStats0.committedInstType::SimdCmp            0      0.00%     52.24% # Class of committed instruction. (Count)
board.processor.cores.core.commitStats0.committedInstType::SimdCvt            0      0.00%     52.24% # Class of committed instruction. (Count)
board.processor.cores.core.commitStats0.committedInstType::SimdMisc            0      0.00%     52.24% # Class of committed instruction. (Count)
board.processor.cores.core.commitStats0.committedInstType::SimdMult            0      0.00%     52.24% # Class of committed instruction. (Count)
board.processor.cores.core.commitStats0.committedInstType::SimdMultAcc            0      0.00%     52.24% # Class of committed instruction. (Count)
board.processor.cores.core.commitStats0.committedInstType::SimdMatMultAcc            0      0.00%     52.24% # Class of committed instruction. (Count)
board.processor.cores.core.commitStats0.committedInstType::SimdShift            0      0.00%     52.24% # Class of committed instruction. (Count)
board.processor.cores.core.commitStats0.committedInstType::SimdShiftAcc            0      0.00%     52.24% # Class of committed instruction. (Count)
board.processor.cores.core.commitStats0.committedInstType::SimdDiv            0      0.00%     52.24% # Class of committed instruction. (Count)
board.processor.cores.core.commitStats0.committedInstType::SimdSqrt            0      0.00%     52.24% # Class of committed instruction. (Count)
board.processor.cores.core.commitStats0.committedInstType::SimdFloatAdd            0      0.00%     52.24% # Class of committed instruction. (Count)
board.processor.cores.core.commitStats0.committedInstType::SimdFloatAlu            0      0.00%     52.24% # Class of committed instruction. (Count)
board.processor.cores.core.commitStats0.committedInstType::SimdFloatCmp            0      0.00%     52.24% # Class of committed instruction. (Count)
board.processor.cores.core.commitStats0.committedInstType::SimdFloatCvt            0      0.00%     52.24% # Class of committed instruction. (Count)
board.processor.cores.core.commitStats0.committedInstType::SimdFloatDiv            0      0.00%     52.24% # Class of committed instruction. (Count)
board.processor.cores.core.commitStats0.committedInstType::SimdFloatMisc            0      0.00%     52.24% # Class of committed instruction. (Count)
board.processor.cores.core.commitStats0.committedInstType::SimdFloatMult            0      0.00%     52.24% # Class of committed instruction. (Count)
board.processor.cores.core.commitStats0.committedInstType::SimdFloatMultAcc            0      0.00%     52.24% # Class of committed instruction. (Count)
board.processor.cores.core.commitStats0.committedInstType::SimdFloatMatMultAcc            0      0.00%     52.24% # Class of committed instruction. (Count)
board.processor.cores.core.commitStats0.committedInstType::SimdFloatSqrt            0      0.00%     52.24% # Class of committed instruction. (Count)
board.processor.cores.core.commitStats0.committedInstType::SimdReduceAdd            0      0.00%     52.24% # Class of committed instruction. (Count)
board.processor.cores.core.commitStats0.committedInstType::SimdReduceAlu            0      0.00%     52.24% # Class of committed instruction. (Count)
board.processor.cores.core.commitStats0.committedInstType::SimdReduceCmp            0      0.00%     52.24% # Class of committed instruction. (Count)
board.processor.cores.core.commitStats0.committedInstType::SimdFloatReduceAdd            0      0.00%     52.24% # Class of committed instruction. (Count)
board.processor.cores.core.commitStats0.committedInstType::SimdFloatReduceCmp            0      0.00%     52.24% # Class of committed instruction. (Count)
board.processor.cores.core.commitStats0.committedInstType::SimdAes            0      0.00%     52.24% # Class of committed instruction. (Count)
board.processor.cores.core.commitStats0.committedInstType::SimdAesMix            0      0.00%     52.24% # Class of committed instruction. (Count)
board.processor.cores.core.commitStats0.committedInstType::SimdSha1Hash            0      0.00%     52.24% # Class of committed instruction. (Count)
board.processor.cores.core.commitStats0.committedInstType::SimdSha1Hash2            0      0.00%     52.24% # Class of committed instruction. (Count)
board.processor.cores.core.commitStats0.committedInstType::SimdSha256Hash            0      0.00%     52.24% # Class of committed instruction. (Count)
board.processor.cores.core.commitStats0.committedInstType::SimdSha256Hash2            0      0.00%     52.24% # Class of committed instruction. (Count)
board.processor.cores.core.commitStats0.committedInstType::SimdShaSigma2            0      0.00%     52.24% # Class of committed instruction. (Count)
board.processor.cores.core.commitStats0.committedInstType::SimdShaSigma3            0      0.00%     52.24% # Class of committed instruction. (Count)
board.processor.cores.core.commitStats0.committedInstType::SimdPredAlu            0      0.00%     52.24% # Class of committed instruction. (Count)
board.processor.cores.core.commitStats0.committedInstType::Matrix            0      0.00%     52.24% # Class of committed instruction. (Count)
board.processor.cores.core.commitStats0.committedInstType::MatrixMov            0      0.00%     52.24% # Class of committed instruction. (Count)
board.processor.cores.core.commitStats0.committedInstType::MatrixOP            0      0.00%     52.24% # Class of committed instruction. (Count)
board.processor.cores.core.commitStats0.committedInstType::MemRead      1877006      1.82%     54.06% # Class of committed instruction. (Count)
board.processor.cores.core.commitStats0.committedInstType::MemWrite      1367518      1.32%     55.38% # Class of committed instruction. (Count)
board.processor.cores.core.commitStats0.committedInstType::FloatMemRead     34320390     33.25%     88.63% # Class of committed instruction. (Count)
board.processor.cores.core.commitStats0.committedInstType::FloatMemWrite     11741396     11.37%    100.00% # Class of committed instruction. (Count)
board.processor.cores.core.commitStats0.committedInstType::IprAccess            0      0.00%    100.00% # Class of committed instruction. (Count)
board.processor.cores.core.commitStats0.committedInstType::InstPrefetch            0      0.00%    100.00% # Class of committed instruction. (Count)
board.processor.cores.core.commitStats0.committedInstType::VectorUnitStrideLoad            0      0.00%    100.00% # Class of committed instruction. (Count)
board.processor.cores.core.commitStats0.committedInstType::VectorUnitStrideStore            0      0.00%    100.00% # Class of committed instruction. (Count)
board.processor.cores.core.commitStats0.committedInstType::VectorUnitStrideMaskLoad            0      0.00%    100.00% # Class of committed instruction. (Count)
board.processor.cores.core.commitStats0.committedInstType::VectorUnitStrideMaskStore            0      0.00%    100.00% # Class of committed instruction. (Count)
board.processor.cores.core.commitStats0.committedInstType::VectorStridedLoad            0      0.00%    100.00% # Class of committed instruction. (Count)
board.processor.cores.core.commitStats0.committedInstType::VectorStridedStore            0      0.00%    100.00% # Class of committed instruction. (Count)
board.processor.cores.core.commitStats0.committedInstType::VectorIndexedLoad            0      0.00%    100.00% # Class of committed instruction. (Count)
board.processor.cores.core.commitStats0.committedInstType::VectorIndexedStore            0      0.00%    100.00% # Class of committed instruction. (Count)
board.processor.cores.core.commitStats0.committedInstType::VectorUnitStrideFaultOnlyFirstLoad            0      0.00%    100.00% # Class of committed instruction. (Count)
board.processor.cores.core.commitStats0.committedInstType::VectorWholeRegisterLoad            0      0.00%    100.00% # Class of committed instruction. (Count)
board.processor.cores.core.commitStats0.committedInstType::VectorWholeRegisterStore            0      0.00%    100.00% # Class of committed instruction. (Count)
board.processor.cores.core.commitStats0.committedInstType::VectorIntegerArith            0      0.00%    100.00% # Class of committed instruction. (Count)
board.processor.cores.core.commitStats0.committedInstType::VectorFloatArith            0      0.00%    100.00% # Class of committed instruction. (Count)
board.processor.cores.core.commitStats0.committedInstType::VectorFloatConvert            0      0.00%    100.00% # Class of committed instruction. (Count)
board.processor.cores.core.commitStats0.committedInstType::VectorIntegerReduce            0      0.00%    100.00% # Class of committed instruction. (Count)
board.processor.cores.core.commitStats0.committedInstType::VectorFloatReduce            0      0.00%    100.00% # Class of committed instruction. (Count)
board.processor.cores.core.commitStats0.committedInstType::VectorMisc            0      0.00%    100.00% # Class of committed instruction. (Count)
board.processor.cores.core.commitStats0.committedInstType::VectorIntegerExtension            0      0.00%    100.00% # Class of committed instruction. (Count)
board.processor.cores.core.commitStats0.committedInstType::VectorConfig            0      0.00%    100.00% # Class of committed instruction. (Count)
board.processor.cores.core.commitStats0.committedInstType::total    103232414                       # Class of committed instruction. (Count)
board.processor.cores.core.commitStats0.committedControl::IsControl     12461051                       # Class of control type instructions committed (Count)
board.processor.cores.core.commitStats0.committedControl::IsDirectControl     12358592                       # Class of control type instructions committed (Count)
board.processor.cores.core.commitStats0.committedControl::IsIndirectControl       102459                       # Class of control type instructions committed (Count)
board.processor.cores.core.commitStats0.committedControl::IsCondControl     12255661                       # Class of control type instructions committed (Count)
board.processor.cores.core.commitStats0.committedControl::IsUncondControl       205390                       # Class of control type instructions committed (Count)
board.processor.cores.core.commitStats0.committedControl::IsCall       102171                       # Class of control type instructions committed (Count)
board.processor.cores.core.commitStats0.committedControl::IsReturn       102166                       # Class of control type instructions committed (Count)
board.processor.cores.core.exec_context.thread_0.numMatAluAccesses            0                       # Number of matrix alu accesses (Count)
board.processor.cores.core.exec_context.thread_0.numCallsReturns       204337                       # Number of times a function call or return occured (Count)
board.processor.cores.core.exec_context.thread_0.numMatInsts            0                       # Number of matrix instructions (Count)
board.processor.cores.core.exec_context.thread_0.numIdleCycles     0.004000                       # Number of idle cycles (Cycle)
board.processor.cores.core.exec_context.thread_0.numBusyCycles 400951118.996000                       # Number of busy cycles (Cycle)
board.processor.cores.core.exec_context.thread_0.notIdleFraction     1.000000                       # Percentage of non-idle cycles (Ratio)
board.processor.cores.core.exec_context.thread_0.idleFraction     0.000000                       # Percentage of idle cycles (Ratio)
board.processor.cores.core.executeStats0.numInsts            0                       # Number of executed instructions (Count)
board.processor.cores.core.executeStats0.numNop            0                       # Number of nop insts executed (Count)
board.processor.cores.core.executeStats0.numBranches            0                       # Number of branches executed (Count)
board.processor.cores.core.executeStats0.numLoadInsts            0                       # Number of load instructions executed (Count)
board.processor.cores.core.executeStats0.numStoreInsts     49306310                       # Number of stores executed (Count)
board.processor.cores.core.executeStats0.instRate            0                       # Inst execution rate ((Count/Cycle))
board.processor.cores.core.executeStats0.numFpAluAccesses     58405095                       # Number of float alu accesses (Count)
board.processor.cores.core.executeStats0.numFpRegReads     47266020                       # Number of times the floating registers were read (Count)
board.processor.cores.core.executeStats0.numFpRegWrites     46563343                       # Number of times the floating registers were written (Count)
board.processor.cores.core.executeStats0.numIntAluAccesses     91289543                       # Number of integer alu accesses (Count)
board.processor.cores.core.executeStats0.numIntRegReads    105932078                       # Number of times the integer registers were read (Count)
board.processor.cores.core.executeStats0.numIntRegWrites     31201134                       # Number of times the integer registers were written (Count)
board.processor.cores.core.executeStats0.numMemRefs     49306310                       # Number of memory refs (Count)
board.processor.cores.core.executeStats0.numMiscRegReads     82790682                       # Number of times the Misc registers were read (Count)
board.processor.cores.core.executeStats0.numMiscRegWrites     59007008                       # Number of times the Misc registers were written (Count)
board.processor.cores.core.executeStats0.numVecAluAccesses            0                       # Number of vector alu accesses (Count)
board.processor.cores.core.executeStats0.numDiscardedOps            0                       # Number of ops (including micro ops) which were discarded before commit (Count)
board.processor.cores.core.fetchStats0.numInsts    103232362                       # Number of instructions fetched (thread level) (Count)
board.processor.cores.core.fetchStats0.numOps    103232414                       # Number of ops (including micro ops) fetched (thread level) (Count)
board.processor.cores.core.fetchStats0.fetchRate     0.257469                       # Number of inst fetches per cycle ((Count/Cycle))
board.processor.cores.core.fetchStats0.numBranches     12461051                       # Number of branches fetched (Count)
board.processor.cores.core.fetchStats0.branchRate     0.031079                       # Number of branch fetches per cycle (Ratio)
board.processor.cores.core.fetchStats0.numFetchSuspends            0                       # Number of times Execute suspended instruction fetching (Count)
board.processor.cores.core.mmu.dtb.readHits            0                       # read hits (Count)
board.processor.cores.core.mmu.dtb.readMisses            0                       # read misses (Count)
board.processor.cores.core.mmu.dtb.readAccesses            0                       # read accesses (Count)
board.processor.cores.core.mmu.dtb.writeHits            0                       # write hits (Count)
board.processor.cores.core.mmu.dtb.writeMisses            0                       # write misses (Count)
board.processor.cores.core.mmu.dtb.writeAccesses            0                       # write accesses (Count)
board.processor.cores.core.mmu.dtb.hits             0                       # Total TLB (read and write) hits (Count)
board.processor.cores.core.mmu.dtb.misses            0                       # Total TLB (read and write) misses (Count)
board.processor.cores.core.mmu.dtb.accesses            0                       # Total TLB (read and write) accesses (Count)
board.processor.cores.core.mmu.dtb.walker.power_state.pwrStateResidencyTicks::UNDEFINED 100237779750                       # Cumulative time (in ticks) in various power states (Tick)
board.processor.cores.core.mmu.itb.readHits            0                       # read hits (Count)
board.processor.cores.core.mmu.itb.readMisses            0                       # read misses (Count)
board.processor.cores.core.mmu.itb.readAccesses            0                       # read accesses (Count)
board.processor.cores.core.mmu.itb.writeHits            0                       # write hits (Count)
board.processor.cores.core.mmu.itb.writeMisses            0                       # write misses (Count)
board.processor.cores.core.mmu.itb.writeAccesses            0                       # write accesses (Count)
board.processor.cores.core.mmu.itb.hits             0                       # Total TLB (read and write) hits (Count)
board.processor.cores.core.mmu.itb.misses            0                       # Total TLB (read and write) misses (Count)
board.processor.cores.core.mmu.itb.accesses            0                       # Total TLB (read and write) accesses (Count)
board.processor.cores.core.mmu.itb.walker.power_state.pwrStateResidencyTicks::UNDEFINED 100237779750                       # Cumulative time (in ticks) in various power states (Tick)
board.processor.cores.core.power_state.pwrStateResidencyTicks::ON 100237779750                       # Cumulative time (in ticks) in various power states (Tick)
board.processor.cores.core.thread_0.numInsts            0                       # Number of Instructions committed (Count)
board.processor.cores.core.thread_0.numOps            0                       # Number of Ops committed (Count)
board.processor.cores.core.thread_0.numMemRefs            0                       # Number of Memory References (Count)
board.processor.cores.core.workload.numSyscalls           30                       # Number of system calls (Count)
board.workload.inst.arm                             0                       # number of arm instructions executed (Count)
board.workload.inst.quiesce                         0                       # number of quiesce instructions executed (Count)

---------- End Simulation Statistics   ----------
