gem5 Simulator System.  https://www.gem5.org
gem5 is copyrighted software; use the --copyright option for details.

gem5 version 23.1.0.0
gem5 compiled Jan  6 2024 23:00:07
gem5 started Jan 25 2024 06:56:10
gem5 executing on codespaces-f843ff, pid 70393
command line: gem5 -re --outdir=outputs/step3_3 sim_Minor_DAXPY.py 1 6 6

int_op: 6, int_issue: 1
int_op: 6, int_issue: 1
fp_op: 6, fp_issue: 1
Global frequency set at 1000000000000 ticks per second
Finished simulation.
